Metadata-Version: 2.1
Name: sumo-output-parsers
Version: 0.6
Summary: Fast and lightweight file parsers for SUMO(traffic simulator) output
License: MIT
Author: Kensuke Mitsuzawa
Author-email: kensuke.mit@gmail.com
Maintainer: Kensuke Mitsuzawa
Maintainer-email: kensuke.mit@gmail.com
Requires-Python: >=3.7,<3.10
Classifier: License :: OSI Approved :: MIT License
Classifier: Programming Language :: Python :: 3
Classifier: Programming Language :: Python :: 3.7
Classifier: Programming Language :: Python :: 3.8
Classifier: Programming Language :: Python :: 3.9
Provides-Extra: full
Requires-Dist: Cython
Requires-Dist: Shapely (>=1.7.0,<2.0.0); extra == "full"
Requires-Dist: SumoNetVis (>=1.6.0,<2.0.0); extra == "full"
Requires-Dist: adjustText; extra == "full"
Requires-Dist: dataclasses
Requires-Dist: geopandas (>=0.10.0,<0.11.0); extra == "full"
Requires-Dist: geoviews (>=1.9.1,<2.0.0); extra == "full"
Requires-Dist: h5py (>=3.1.0,<4.0.0)
Requires-Dist: hvplot (>=0.7.3,<0.8.0); extra == "full"
Requires-Dist: imageio-ffmpeg; extra == "full"
Requires-Dist: joblib
Requires-Dist: lxml
Requires-Dist: more_itertools
Requires-Dist: moviepy (<1.0.2); extra == "full"
Requires-Dist: nptyping (>=1.4.1,<2.0.0)
Requires-Dist: numpy (>=1.19.2,<2.0.0)
Requires-Dist: pandas (>=1.1.3,<2.0.0)
Requires-Dist: pyproj (>=3.0.0,<4.0.0); extra == "full"
Requires-Dist: pyviz; extra == "full"
Requires-Dist: requests
Requires-Dist: scikit-learn (>=1.0,<2.0)
Requires-Dist: scipy
Requires-Dist: tabulate
Requires-Dist: tqdm (>=4.61.2,<5.0.0)
Description-Content-Type: text/markdown

# What's this?

Fast and lightweight file parsers for Eclipse SUMO(traffic simulator) output.

The SUMO outputs are huge in size and hard to handle.

SUMO team provides scripts to convert from xml into CSV, however, the procedure is troublesome (downloading XSD, executing python script...)

Also, machine learning users take care of matrix data format.

This package provides an easy-to-call python interface to obtain matrix form from SUMO xml files.

# Contributions

- easy-to-call python interfaces to obtain matrix form from SUMO xml files
- easy-to-call python interfaces to visualize SUMO simulations

![Example of animation](https://user-images.githubusercontent.com/1772712/135924848-4a938dd2-b2d3-4dfe-bfd6-94904086c382.gif)

# Install

```
pip install sumo-output-parsers
```

Some submodules are not ready to use by default for which
we avoid errors relating Proproj or Cartopy. 

If you'd like to depict car flows or detector positions, install with

```
pip install "sumo-output-parsers[full]"
```

# Sample

See `sample.py`

# Test

```
pytest tests/
```

If your package-dependency is complete including packages for visualization, 
then `pytest tests/ --visualization`


# For developers

Build with poetry.

# Install Guide

When you encounter any dependency issues, I recommend to use `conda`.
`cartopy` and `proj` cause the dependency issue frequently.
Conda helps you to install the compiled binaries.
See Proj [documentation](https://proj.org/install.html).

# License

```
@misc{sumo-output-parsers,
  author = {Kensuke Mitsuzawa},
  title = {sumo_output_parsers},
  year = {2021},
  publisher = {GitHub},
  journal = {GitHub repository},
  howpublished = {\url{}},
}
```
